Version 4
SHEET 1 1468 1396
WIRE -496 608 -912 608
WIRE -400 608 -496 608
WIRE -304 608 -400 608
WIRE -144 608 -224 608
WIRE -64 608 -144 608
WIRE 0 608 -64 608
WIRE -912 624 -912 608
WIRE -496 624 -496 608
WIRE -400 624 -400 608
WIRE -144 624 -144 608
WIRE 0 624 0 608
WIRE -912 720 -912 704
WIRE -400 720 -400 704
WIRE -368 720 -400 720
WIRE -144 720 -144 704
WIRE -144 720 -176 720
WIRE 0 720 0 704
WIRE 112 736 32 736
WIRE -448 768 -480 768
WIRE -368 768 -384 768
WIRE -64 768 -64 608
WIRE -64 768 -176 768
WIRE -480 816 -480 768
WIRE 32 832 32 736
WIRE 32 832 0 832
WIRE 112 832 112 816
WIRE 64 848 -80 848
WIRE 192 848 160 848
WIRE 304 848 272 848
WIRE 0 864 0 832
WIRE -80 880 -80 848
WIRE -16 880 -80 880
WIRE -128 896 -176 896
WIRE 64 896 64 848
WIRE 64 896 48 896
WIRE 160 896 160 848
WIRE 160 896 64 896
WIRE 304 896 304 848
WIRE -128 912 -128 896
WIRE -16 912 -128 912
WIRE 0 960 0 928
WIRE 32 960 32 928
WIRE 192 960 32 960
WIRE -128 1008 -128 992
WIRE 304 1008 304 960
WIRE 192 1024 192 960
WIRE 192 1104 192 1088
WIRE 192 1136 192 1104
FLAG -128 896 OUT
FLAG -128 1008 0
FLAG 0 720 0
FLAG -912 720 0
FLAG 0 608 IN
FLAG -480 816 0
FLAG 112 832 0
FLAG 0 960 0
FLAG 304 1008 0
FLAG 192 1136 0
SYMBOL res -208 592 R90
WINDOW 0 0 56 VBottom 2
WINDOW 3 32 56 VTop 2
SYMATTR InstName R1
SYMATTR Value 0.08
SYMBOL res -144 896 R0
SYMATTR InstName R2
SYMATTR Value 3k
SYMBOL voltage 0 608 R0
WINDOW 123 0 0 Left 2
WINDOW 39 0 0 Left 2
SYMATTR InstName V1
SYMATTR Value 12
SYMBOL opamps\\LT6106 -272 784 R0
SYMATTR InstName U1
SYMBOL res -160 608 R0
SYMATTR InstName R4
SYMATTR Value 100
SYMBOL res -416 608 R0
SYMATTR InstName R5
SYMATTR Value 0
SYMBOL load2 -912 624 R0
WINDOW 123 25 126 Left 2
WINDOW 39 25 105 Left 2
WINDOW 0 49 12 Left 2
SYMATTR InstName Iload
SYMATTR Value PULSE(0 0.4 .02 .1m .1m .02 .04)
SYMBOL schottky -384 752 R90
WINDOW 0 -4 32 VBottom 2
WINDOW 3 36 32 VTop 2
SYMATTR InstName D1
SYMATTR Value BAT54
SYMATTR Description Zener Diode
SYMATTR Type zener
SYMBOL OpAmps\\ADA4807-1 16 896 R0
SYMATTR InstName U2
SYMBOL voltage 112 720 R0
WINDOW 123 0 0 Left 0
WINDOW 39 0 0 Left 0
SYMATTR InstName V2
SYMATTR Value 6
SYMBOL res 288 832 R90
WINDOW 0 0 56 VBottom 2
WINDOW 3 32 56 VTop 2
SYMATTR InstName R3
SYMATTR Value 51
SYMBOL cap 288 896 R0
SYMATTR InstName C1
SYMATTR Value 4.7n
SYMBOL voltage 192 1008 R0
WINDOW 123 0 0 Left 0
WINDOW 39 0 0 Left 0
SYMATTR InstName V3
SYMATTR Value 3.3
TEXT -56 992 Left 2 !.tran .3 startup
TEXT -440 560 Bottom 2 ;LT6106 - Low Cost, 36V High Side Current Sense Amplifier\nSingle Supply, Unidirectional Currrent Sense Amplifier\nInput: 2.7V to 36V (44V Abs Max)     Rsense: .O5ohm Shunt with 3A     Output: 0V to 4.5V (Gain of 30)
TEXT -1056 1016 Left 2 ;Note:\n  If the simulation model is not found please update with the "Sync Release" command from the "Tools" menu.\n  It remains the customer's responsibility to verify proper and reliable operation in the actual application.\n  Component substitution and printed circuit board layout may significantly affect circuit performance or reliability.\n  Contact your local sales representative for assistance. This circuit is distributed to customers only for use with LTC parts.\n  Copyright © 2012 Linear Technology Inc. All rights reserved.
